
**** 05/26/21 11:45:20 ******* PSpice 17.4.0 (Nov 2018) ******* ID# 0 ********

 ** Profile: "SCHEMATIC1-TransientAnalysis"  [ C:\Users\a0232073\Downloads\OPA365\OPA365-PSpiceFiles\SCHEMATIC1\TransientAnalysis.sim


 ****     CIRCUIT DESCRIPTION


******************************************************************************




** Creating circuit file "TransientAnalysis.cir" 
** WARNING: THIS AUTOMATICALLY GENERATED FILE MAY BE OVERWRITTEN BY SUBSEQUENT SIMULATIONS

*Libraries: 
* Profile Libraries :
.INC "C:\Users\a0232073\Downloads\OPA365\OPA365-PSpiceFiles\SCHEMATIC1\TransientAnalysis\TransientAnalysis_profile.inc" 
* Local Libraries :
* From [PSPICE NETLIST] section of C:\SPB_Data\cdssetup\OrCAD_PSpiceTIPSpice_Install\17.4.0\PSpice.ini file:

**** INCLUDING TransientAnalysis_profile.inc ****
.LIB    ".\OPA365.lib" 

**** RESUMING TransientAnalysis.cir ****
.lib "nom_pspti.lib" 
.lib "nom.lib" 

*Analysis directives: 
.TRAN  0 5000ns 0 1e-9 
.OPTIONS ADVCONV
.OPTIONS FILEMODELSEARCH
.PROBE64 V(alias(*)) I(alias(*)) W(alias(*)) D(alias(*)) NOISE(alias(*)) 
.INC "..\SCHEMATIC1.net" 



**** INCLUDING SCHEMATIC1.net ****
* source OPA365
X_U1         N01370 N01210 VCC VEE VOUT OPA365
V_V1         VCC 0 5Vdc
V_V2         VEE 0 0Vdc
V_V3         VINP 0  AC 1
+SIN 0 0.1 1e6 0 0 0
R_Rload         VREF VOUT  1k TC=0,0 
V_V4         VREF 0 2.5Vdc
R_R2         0 N01210  1k TC=0,0 
R_R1         N01210 VOUT  10k TC=0,0 
R_R3         VINP N01370  1k TC=0,0 
R_R4         N01370 VREF  10k TC=0,0 

**** RESUMING TransientAnalysis.cir ****
.END

**** 05/26/21 11:45:20 ******* PSpice 17.4.0 (Nov 2018) ******* ID# 0 ********

 ** Profile: "SCHEMATIC1-TransientAnalysis"  [ C:\Users\a0232073\Downloads\OPA365\OPA365-PSpiceFiles\SCHEMATIC1\TransientAnalysis.sim


 ****     Diode MODEL PARAMETERS


******************************************************************************




               X_U1.DVN        X_U1.DIN        X_U1.DD         
          IS  100.000000E-18   10.000000E-15   10.000000E-15 
          KF   80.000000E-15                                 


**** 05/26/21 11:45:20 ******* PSpice 17.4.0 (Nov 2018) ******* ID# 0 ********

 ** Profile: "SCHEMATIC1-TransientAnalysis"  [ C:\Users\a0232073\Downloads\OPA365\OPA365-PSpiceFiles\SCHEMATIC1\TransientAnalysis.sim


 ****     BJT MODEL PARAMETERS


******************************************************************************




               X_U1.QPL        X_U1.QNL        
               PNP             NPN             
       LEVEL    1               1            
          IS  100.000000E-18  100.000000E-18 
          BF  100             100            
          NF    1               1            
          BR    1               1            
          NR    1               1            
         ISS    0               0            
          RE    0               0            
          RC    0               0            
         CJE    0               0            
         VJE     .75             .75         
         CJC    0               0            
         VJC     .75             .75         
         MJC     .33             .33         
        XCJC    1               1            
         CJS    0               0            
         VJS     .75             .75         
          KF    0               0            
          AF    1               1            
          CN    2.2             2.42         
           D     .52             .87         


**** 05/26/21 11:45:20 ******* PSpice 17.4.0 (Nov 2018) ******* ID# 0 ********

 ** Profile: "SCHEMATIC1-TransientAnalysis"  [ C:\Users\a0232073\Downloads\OPA365\OPA365-PSpiceFiles\SCHEMATIC1\TransientAnalysis.sim


 ****     Junction FET MODEL PARAMETERS


******************************************************************************




               X_U1.JI         
               NJF             
         VTO   -2            
        BETA  100.000000E-06 
          IS    1.000000E-18 


**** 05/26/21 11:45:20 ******* PSpice 17.4.0 (Nov 2018) ******* ID# 0 ********

 ** Profile: "SCHEMATIC1-TransientAnalysis"  [ C:\Users\a0232073\Downloads\OPA365\OPA365-PSpiceFiles\SCHEMATIC1\TransientAnalysis.sim


 ****     MOSFET MODEL PARAMETERS


******************************************************************************




               X_U1.POUT       X_U1.NOUT       X_U1.PIN        
               PMOS            NMOS            PMOS            
       LEVEL    1               1               1            
           L  100.000000E-06  100.000000E-06  100.000000E-06 
           W  100.000000E-06  100.000000E-06  100.000000E-06 
         VTO    -.7              .7             -.7          
          KP  200.000000E-06  200.000000E-06  200.000000E-06 
       GAMMA    0               0               0            
         PHI     .6              .6              .6          
      LAMBDA    0               0               0            
          IS   10.000000E-15   10.000000E-15   10.000000E-15 
          JS    0               0               0            
          PB     .8              .8              .8          
        PBSW     .8              .8              .8          
          CJ    0               0               0            
        CJSW    0               0               0            
        CGSO    0               0               0            
        CGDO    0               0               0            
        CGBO    0               0               0            
         TOX    0               0               0            
          XJ    0               0               0            
       UCRIT   10.000000E+03   10.000000E+03   10.000000E+03 
      DIOMOD    1               1               1            
         VFB    0               0               0            
        LETA    0               0               0            
        WETA    0               0               0            
          U0    0               0               0            
        TEMP    0               0               0            
         VDD    5               5               5            
       XPART    0               0               0            


ERROR(ORPSIM-16583): Detected an imported model containing transistors or diodes. For such models, PSpice for TI supports a minimum of one and maximum of three traces. Reduce the number of traces and simulate again.


ABORTING SIMULATION
**** 05/26/21 11:45:20 ******* PSpice 17.4.0 (Nov 2018) ******* ID# 0 ********

 ** Profile: "SCHEMATIC1-TransientAnalysis"  [ C:\Users\a0232073\Downloads\OPA365\OPA365-PSpiceFiles\SCHEMATIC1\TransientAnalysis.sim


 ****     JOB STATISTICS SUMMARY


******************************************************************************



Node counts:
  Top level (NUNODS)                =           8
  External (NCNODS)                 =          72
  Total (NUMNOD)                    =          72

Total device count (NUMEL)          =         146
  Capacitors (C)                    =          10
  Diodes (D)                        =          14
  VCVS (E)                          =          18
  VCCS (G)                          =          10
  Current Sources (I)               =           8
  JFETs (J)                         =           4
  Inductors (L)                     =           1
  MosFETs (M)                       =           8
  BJTs (Q)                          =           2
  Resistors (R)                     =          60
  Voltage Sources (V)               =          10

Number of subcircuits (X)           =           1

Matrix statistics:
  Matrix size (NSTOP)               =         101
  Initial no. elements (NTTAR)      =         380
  No. elements w/ fillin (NTTBR)    =         380
  No. fillins (IFILL)               =           0
  No. overflows (NTTOV)             =           0
  No. LU operations (IOPS)          =           0
  Percent sparsity (PERSPA)         =      96.275

Analysis statistics:
  No. total time points (NUMTTP)    =           0
  No. rejected time points (NUMRTP) =           0
  No. iterations (NUMNIT)           =           0

Load Threads                        =           1

Runtime statistics:                       Seconds      Iterations
  Matrix load                       =        0.00
  Matrix solution                   =        0.00               1
  Readin                            =        2.11
  General setup                     =        0.00
  CMI setup                     =        0.00
  Setup                             =        0.00
  DC sweep                          =        0.00               0
  Bias point                        =        0.00               0
  AC and noise                      =        0.00               0
  Total transient analysis          =        0.00
  Output                            =        0.00
  Overhead                          =         .28
  License check-out time            =       27.08
  Total job time (using Solver 1)   =        2.13
